
[General]
network =  RemoteExecutionNetwork
sim-time-limit = 100
**.client[*].numElements = 100 
**.client[*].elementMin = 0 
**.client[*].elementMax = 1000 
**.server[*].maliciousProbability = 0.2

